* NGSPICE file created from alu_pex.ext - technology: sky130B

.subckt alu_pex B0 B1 B2 B3 B4 B5 B6 A0 A1 A2 A3 A4 A5 A6 A7 Y0 Y1 Y2 Y3 Y4 Y5 Y6
+ S Z C V VSS Y7 B7 SEL0 SEL1 SEL2 SEL3 VDD
X0 8bit_ADDER_0.FULL_ADDER_XORED_3.XOR2_2.Y.t8 a_n13531_3164.t2 a_n13501_3190.t5 VSS.t1345 sky130_fd_pr__nfet_01v8 ad=0.10725 pd=0.98 as=0.10725 ps=0.98 w=0.65 l=0.15
X1 VSS.t2026 8bit_ADDER_0.FULL_ADDER_XORED_4.XOR2_1.A.t12 a_n10081_1406.t0 VSS.t2025 sky130_fd_pr__nfet_01v8 ad=0.10075 pd=0.96 as=0.1885 ps=1.88 w=0.65 l=0.15
X2 mux8_2.NAND4F_0.Y.t4 SEL0.t0 VDD.t3102 VDD.t3101 sky130_fd_pr__pfet_01v8 ad=0.26565 pd=1.94 as=0.26565 ps=1.94 w=1.61 l=0.15
X3 a_n12416_n11683.t2 a_n12446_n11709.t2 VSS.t1939 VSS.t1938 sky130_fd_pr__nfet_01v8 ad=0.10725 pd=0.98 as=0.10725 ps=0.98 w=0.65 l=0.15
X4 VDD.t4298 mux8_5.NAND4F_8.Y.t9 a_11865_n20887.t9 VDD.t4297 sky130_fd_pr__pfet_01v8 ad=0.2112 pd=1.61 as=0.2112 ps=1.61 w=1.28 l=0.15
X5 a_11865_n2775.t9 mux8_1.NAND4F_8.Y.t9 VDD.t4315 VDD.t4314 sky130_fd_pr__pfet_01v8 ad=0.2112 pd=1.61 as=0.2112 ps=1.61 w=1.28 l=0.15
X6 a_n18305_n6187.t1 MULT_0.4bit_ADDER_0.FULL_ADDER_0.NAND2_2.A.t7 VSS.t1948 VSS.t352 sky130_fd_pr__nfet_01v8 ad=0.33 pd=2.33 as=0.62 ps=4.62 w=2 l=0.15
X7 a_n20083_3190.t2 a_n20839_3190.t2 VSS.t1923 VSS.t1922 sky130_fd_pr__nfet_01v8 ad=0.10725 pd=0.98 as=0.10725 ps=0.98 w=0.65 l=0.15
X8 VDD.t4274 MULT_0.inv_13.A.t7 MULT_0.4bit_ADDER_1.A3.t3 VDD.t4273 sky130_fd_pr__pfet_01v8 ad=0.17655 pd=1.4 as=0.3317 ps=2.76 w=1.07 l=0.15
X9 mux8_2.NAND4F_5.Y.t4 SEL1.t0 VDD.t4336 VDD.t4335 sky130_fd_pr__pfet_01v8 ad=0.26565 pd=1.94 as=0.26565 ps=1.94 w=1.61 l=0.15
X10 MULT_0.4bit_ADDER_1.FULL_ADDER_2.NAND2_2.A.t3 MULT_0.4bit_ADDER_1.FULL_ADDER_3.COUT.t7 VDD.t4280 VDD.t4279 sky130_fd_pr__pfet_01v8 ad=0.17655 pd=1.4 as=0.17655 ps=1.4 w=1.07 l=0.15
X11 mux8_7.NAND4F_8.Y.t8 mux8_7.NAND4F_2.Y.t9 VDD.t4262 VDD.t4261 sky130_fd_pr__pfet_01v8 ad=0.26565 pd=1.94 as=0.26565 ps=1.94 w=1.61 l=0.15
X12 VDD.t3100 SEL0.t1 mux8_5.NAND4F_6.Y.t6 VDD.t3099 sky130_fd_pr__pfet_01v8 ad=0.26565 pd=1.94 as=0.26565 ps=1.94 w=1.61 l=0.15
X13 VSS.t1886 a_n4385_3190.t2 a_n3629_3190.t2 VSS.t1885 sky130_fd_pr__nfet_01v8 ad=0.10725 pd=0.98 as=0.10725 ps=0.98 w=0.65 l=0.15
X14 VDD.t3939 8bit_ADDER_0.FULL_ADDER_XORED_4.COUT.t7 a_n13192_2026.t9 VDD.t3938 sky130_fd_pr__pfet_01v8 ad=0.42625 pd=3.06 as=0.45375 ps=3.08 w=2.75 l=0.15
X15 VDD.t4187 A1.t0 MULT_0.NAND2_9.Y.t3 VDD.t4186 sky130_fd_pr__pfet_01v8 ad=0.3317 pd=2.76 as=0.17655 ps=1.4 w=1.07 l=0.15
X16 mux8_3.inv_0.A.t0 mux8_3.NAND4F_8.Y.t9 VSS.t1779 VSS.t1778 sky130_fd_pr__nfet_01v8 ad=0.165 pd=1.33 as=0.31 ps=2.62 w=1 l=0.15
X17 8bit_ADDER_0.FULL_ADDER_XORED_2.XOR2_1.A.t4 a_n18222_1406.t2 a_n18042_2026.t5 VDD.t3897 sky130_fd_pr__pfet_01v8 ad=0.45375 pd=3.08 as=0.45375 ps=3.08 w=2.75 l=0.15
X18 a_n24624_1406.t3 a_n24654_1380.t2 VSS.t1755 VSS.t1754 sky130_fd_pr__nfet_01v8 ad=0.10725 pd=0.98 as=0.10075 ps=0.96 w=0.65 l=0.15
X19 a_n13975_n7799.t5 a_n14155_n8419.t2 MULT_0.4bit_ADDER_1.FULL_ADDER_2.XOR2_1.A.t5 VDD.t3689 sky130_fd_pr__pfet_01v8 ad=0.45375 pd=3.08 as=0.45375 ps=3.08 w=2.75 l=0.15
X20 a_n11276_n15299.t5 a_n12347_n15041.t2 XOR8_0.S0.t11 VSS.t1689 sky130_fd_pr__nfet_01v8 ad=0.10725 pd=0.98 as=0.10725 ps=0.98 w=0.65 l=0.15
X21 MULT_0.4bit_ADDER_1.FULL_ADDER_2.COUT.t0 MULT_0.4bit_ADDER_1.FULL_ADDER_2.NAND2_2.B.t7 a_n11723_n9452.t0 VSS.t1687 sky130_fd_pr__nfet_01v8 ad=0.62 pd=4.62 as=0.33 ps=2.33 w=2 l=0.15
X22 VDD.t3654 MULT_0.4bit_ADDER_2.FULL_ADDER_0.XOR2_1.A.t12 a_n18998_n11063.t7 VDD.t3653 sky130_fd_pr__pfet_01v8 ad=0.45375 pd=3.08 as=0.45375 ps=3.08 w=2.75 l=0.15
X23 8bit_ADDER_0.FULL_ADDER_XORED_0.XOR2_2.Y.t6 a_n24130_3190.t2 a_n23950_3810.t5 VDD.t3697 sky130_fd_pr__pfet_01v8 ad=0.45375 pd=3.08 as=0.45375 ps=3.08 w=2.75 l=0.15
X24 VDD.t4025 MULT_0.4bit_ADDER_1.B2.t12 MULT_0.4bit_ADDER_1.FULL_ADDER_1.NAND2_2.B.t6 VDD.t4024 sky130_fd_pr__pfet_01v8 ad=0.17655 pd=1.4 as=0.17655 ps=1.4 w=1.07 l=0.15
X25 mux8_4.NAND4F_5.Y.t1 SEL2.t0 VDD.t3701 VDD.t3700 sky130_fd_pr__pfet_01v8 ad=0.26565 pd=1.94 as=0.4991 ps=3.84 w=1.61 l=0.15
X26 MULT_0.4bit_ADDER_2.FULL_ADDER_2.NAND2_2.B.t3 MULT_0.inv_9.Y.t4 VDD.t4007 VDD.t4006 sky130_fd_pr__pfet_01v8 ad=0.17655 pd=1.4 as=0.17655 ps=1.4 w=1.07 l=0.15
X27 8bit_ADDER_0.FULL_ADDER_XORED_3.NAND2_2.A.t3 8bit_ADDER_0.FULL_ADDER_XORED_4.COUT.t8 a_n13381_373.t1 VSS.t163 sky130_fd_pr__nfet_01v8 ad=0.62 pd=4.62 as=0.33 ps=2.33 w=2 l=0.15
X28 a_n13975_n8419.t5 a_n14005_n8445.t2 VSS.t1659 VSS.t1658 sky130_fd_pr__nfet_01v8 ad=0.10725 pd=0.98 as=0.10725 ps=0.98 w=0.65 l=0.15
X29 mux8_5.NAND4F_3.Y.t1 mux8_5.NAND4F_0.C.t4 VDD.t3624 VDD.t3623 sky130_fd_pr__pfet_01v8 ad=0.26565 pd=1.94 as=0.26565 ps=1.94 w=1.61 l=0.15
X30 mux8_4.NAND4F_7.Y.t4 NOT8_0.S3.t4 VDD.t3572 VDD.t3571 sky130_fd_pr__pfet_01v8 ad=0.26565 pd=1.94 as=0.26565 ps=1.94 w=1.61 l=0.15
X31 VDD.t3580 B4.t0 a_n12345_n26161.t1 VDD.t3579 sky130_fd_pr__pfet_01v8 ad=0.42625 pd=3.06 as=0.7975 ps=6.08 w=2.75 l=0.15
X32 a_n10684_n11063.t6 MULT_0.inv_8.Y.t4 VDD.t3513 VDD.t3512 sky130_fd_pr__pfet_01v8 ad=0.45375 pd=3.08 as=0.45375 ps=3.08 w=2.75 l=0.15
X33 VSS.t1625 B6.t0 a_n23960_n22530.t0 VSS.t686 sky130_fd_pr__nfet_01v8 ad=0.62 pd=4.62 as=0.33 ps=2.33 w=2 l=0.15
X34 MULT_0.4bit_ADDER_0.FULL_ADDER_2.XOR2_1.A.t11 a_n14155_n5154.t2 a_n13975_n5154.t5 VSS.t1873 sky130_fd_pr__nfet_01v8 ad=0.10725 pd=0.98 as=0.10725 ps=0.98 w=0.65 l=0.15
X35 VDD.t4043 MULT_0.4bit_ADDER_1.FULL_ADDER_1.NAND2_2.B.t7 MULT_0.4bit_ADDER_1.FULL_ADDER_1.COUT.t3 VDD.t4042 sky130_fd_pr__pfet_01v8 ad=0.17655 pd=1.4 as=0.17655 ps=1.4 w=1.07 l=0.15
X36 8bit_ADDER_0.FULL_ADDER_XORED_6.XOR2_2.Y.t2 a_n4385_3190.t3 a_n4205_3810.t2 VDD.t4185 sky130_fd_pr__pfet_01v8 ad=0.45375 pd=3.08 as=0.45375 ps=3.08 w=2.75 l=0.15
X37 XOR8_0.S4.t5 B4.t1 a_n11274_n25843.t2 VSS.t1642 sky130_fd_pr__nfet_01v8 ad=0.10725 pd=0.98 as=0.10725 ps=0.98 w=0.65 l=0.15
X38 a_5197_5532.t6 a_5167_4886.t2 V_FLAG_0.XOR2_0.Y.t9 VDD.t55 sky130_fd_pr__pfet_01v8 ad=0.45375 pd=3.08 as=0.45375 ps=3.08 w=2.75 l=0.15
X39 mux8_7.NAND4F_7.Y.t4 NOT8_0.S5.t4 a_10459_n26405.t0 VSS.t19 sky130_fd_pr__nfet_01v8 ad=1.24 pd=8.62 as=0.66 ps=4.33 w=4 l=0.15
X40 a_n11274_n23651.t2 a_n12345_n23393.t2 XOR8_0.S3.t4 VSS.t1593 sky130_fd_pr__nfet_01v8 ad=0.10725 pd=0.98 as=0.10725 ps=0.98 w=0.65 l=0.15
X41 VDD.t4332 mux8_2.NAND4F_0.Y.t9 mux8_2.NAND4F_8.Y.t5 VDD.t4331 sky130_fd_pr__pfet_01v8 ad=0.26565 pd=1.94 as=0.26565 ps=1.94 w=1.61 l=0.15
X42 a_n16690_n8419.t5 MULT_0.4bit_ADDER_1.A2.t4 VSS.t5 VSS.t4 sky130_fd_pr__nfet_01v8 ad=0.10725 pd=0.98 as=0.10725 ps=0.98 w=0.65 l=0.15
X43 VDD.t4051 MULT_0.4bit_ADDER_2.B3.t7 a_n20737_n11683.t1 VDD.t4050 sky130_fd_pr__pfet_01v8 ad=0.42625 pd=3.06 as=0.7975 ps=6.08 w=2.75 l=0.15
X44 VSS.t1032 VSS.t1030 a_n8549_n11683.t2 VSS.t1031 sky130_fd_pr__nfet_01v8 ad=0.10725 pd=0.98 as=0.10725 ps=0.98 w=0.65 l=0.15
X45 XOR8_0.S6.t2 B6.t1 a_n11274_n31085.t0 VSS.t1626 sky130_fd_pr__nfet_01v8 ad=0.10725 pd=0.98 as=0.10725 ps=0.98 w=0.65 l=0.15
X46 a_n23960_n23839.t0 A7.t0 AND8_0.NOT8_0.A7.t3 VSS.t1158 sky130_fd_pr__nfet_01v8 ad=0.33 pd=2.33 as=0.62 ps=4.62 w=2 l=0.15
X47 mux8_1.NAND4F_6.Y.t6 SEL1.t1 VDD.t4338 VDD.t4337 sky130_fd_pr__pfet_01v8 ad=0.26565 pd=1.94 as=0.26565 ps=1.94 w=1.61 l=0.15
X48 VSS.t110 MULT_0.4bit_ADDER_0.A2.t4 a_n16690_n5154.t2 VSS.t109 sky130_fd_pr__nfet_01v8 ad=0.10075 pd=0.96 as=0.10725 ps=0.98 w=0.65 l=0.15
X49 VDD.t258 A2.t0 AND8_0.NOT8_0.A2.t5 VDD.t257 sky130_fd_pr__pfet_01v8 ad=0.3317 pd=2.76 as=0.17655 ps=1.4 w=1.07 l=0.15
X50 8bit_ADDER_0.FULL_ADDER_XORED_0.XOR2_1.A.t2 a_n24804_1406.t2 a_n24624_2026.t2 VDD.t57 sky130_fd_pr__pfet_01v8 ad=0.45375 pd=3.08 as=0.45375 ps=3.08 w=2.75 l=0.15
X51 a_11865_1753.t4 mux8_0.NAND4F_8.Y.t9 VDD.t3503 VDD.t3502 sky130_fd_pr__pfet_01v8 ad=0.2112 pd=1.61 as=0.2112 ps=1.61 w=1.28 l=0.15
X52 VDD.t3497 V_FLAG_0.NAND2_0.Y.t7 V.t3 VDD.t3496 sky130_fd_pr__pfet_01v8 ad=0.3317 pd=2.76 as=0.17655 ps=1.4 w=1.07 l=0.15
X53 VSS.t26 a_n15737_n8445.t2 a_n15707_n8419.t5 VSS.t25 sky130_fd_pr__nfet_01v8 ad=0.10725 pd=0.98 as=0.10725 ps=0.98 w=0.65 l=0.15
X54 mux8_2.NAND4F_1.Y.t3 XOR8_0.S1.t12 VDD.t63 VDD.t62 sky130_fd_pr__pfet_01v8 ad=0.26565 pd=1.94 as=0.26565 ps=1.94 w=1.61 l=0.15
X55 MULT_0.4bit_ADDER_1.FULL_ADDER_1.NAND2_2.B.t5 MULT_0.4bit_ADDER_1.B2.t13 VDD.t4027 VDD.t4026 sky130_fd_pr__pfet_01v8 ad=0.17655 pd=1.4 as=0.17655 ps=1.4 w=1.07 l=0.15
X56 VDD.t641 mux8_0.NAND4F_0.C.t4 mux8_0.NAND4F_3.Y.t3 VDD.t640 sky130_fd_pr__pfet_01v8 ad=0.26565 pd=1.94 as=0.26565 ps=1.94 w=1.61 l=0.15
X57 a_n18072_1380.t0 A5.t0 VSS.t176 VSS.t175 sky130_fd_pr__nfet_01v8 ad=0.1885 pd=1.88 as=0.10075 ps=0.96 w=0.65 l=0.15
X58 mux8_7.NAND4F_5.Y.t7 mux8_7.NAND4F_4.B.t4 VDD.t2049 VDD.t2048 sky130_fd_pr__pfet_01v8 ad=0.26565 pd=1.94 as=0.26565 ps=1.94 w=1.61 l=0.15
X59 AND8_0.NOT8_0.A1.t3 A1.t1 VDD.t4189 VDD.t4188 sky130_fd_pr__pfet_01v8 ad=0.17655 pd=1.4 as=0.17655 ps=1.4 w=1.07 l=0.15
X60 VDD.t881 OR8_0.S0.t4 mux8_1.NAND4F_2.Y.t2 VDD.t880 sky130_fd_pr__pfet_01v8 ad=0.4991 pd=3.84 as=0.26565 ps=1.94 w=1.61 l=0.15
X61 a_n15707_n5154.t5 a_n15737_n5180.t2 VSS.t1831 VSS.t1830 sky130_fd_pr__nfet_01v8 ad=0.10725 pd=0.98 as=0.10725 ps=0.98 w=0.65 l=0.15
X62 VDD.t4300 mux8_5.NAND4F_8.Y.t10 a_11865_n20887.t8 VDD.t4299 sky130_fd_pr__pfet_01v8 ad=0.2112 pd=1.61 as=0.2112 ps=1.61 w=1.28 l=0.15
X63 VDD.t3581 B4.t2 right_shifter_0.buffer_4.inv_1.A.t3 VDD.t361 sky130_fd_pr__pfet_01v8 ad=0.17655 pd=1.4 as=0.17655 ps=1.4 w=1.07 l=0.15
X64 AND8_0.NOT8_0.A3.t5 A3.t0 VDD.t4067 VDD.t4066 sky130_fd_pr__pfet_01v8 ad=0.17655 pd=1.4 as=0.17655 ps=1.4 w=1.07 l=0.15
X65 VDD.t3114 VDD.t3113 left_shifter_0.S0.t3 VDD.t467 sky130_fd_pr__pfet_01v8 ad=0.17655 pd=1.4 as=0.17655 ps=1.4 w=1.07 l=0.15
X66 8bit_ADDER_0.FULL_ADDER_XORED_6.XOR2_1.A.t3 a_n5059_1406.t2 a_n4879_2026.t2 VDD.t797 sky130_fd_pr__pfet_01v8 ad=0.45375 pd=3.08 as=0.45375 ps=3.08 w=2.75 l=0.15
X67 mux8_5.NAND4F_5.Y.t1 SEL2.t1 VDD.t3703 VDD.t3702 sky130_fd_pr__pfet_01v8 ad=0.26565 pd=1.94 as=0.4991 ps=3.84 w=1.61 l=0.15
X68 VDD.t763 SEL3.t0 a_n7676_3190.t1 VDD.t762 sky130_fd_pr__pfet_01v8 ad=0.42625 pd=3.06 as=0.7975 ps=6.08 w=2.75 l=0.15
X69 VSS.t1029 VSS.t1027 a_n8549_n5154.t2 VSS.t1028 sky130_fd_pr__nfet_01v8 ad=0.10725 pd=0.98 as=0.10725 ps=0.98 w=0.65 l=0.15
X70 a_8592_n25478.t1 SEL0.t2 a_8496_n25478.t1 VSS.t1989 sky130_fd_pr__nfet_01v8 ad=0.66 pd=4.33 as=0.66 ps=4.33 w=4 l=0.15
X71 mux8_5.NAND4F_7.Y.t6 NOT8_0.S4.t4 VDD.t3955 VDD.t3954 sky130_fd_pr__pfet_01v8 ad=0.26565 pd=1.94 as=0.26565 ps=1.94 w=1.61 l=0.15
X72 mux8_4.NAND4F_9.Y.t4 mux8_4.NAND4F_6.Y.t9 VDD.t229 VDD.t228 sky130_fd_pr__pfet_01v8 ad=0.26565 pd=1.94 as=0.26565 ps=1.94 w=1.61 l=0.15
X73 MULT_0.4bit_ADDER_2.FULL_ADDER_0.NAND2_2.A.t3 MULT_0.4bit_ADDER_2.FULL_ADDER_1.COUT.t7 a_n19187_n12716.t1 VSS.t465 sky130_fd_pr__nfet_01v8 ad=0.62 pd=4.62 as=0.33 ps=2.33 w=2 l=0.15
X74 VSS.t1866 MULT_0.4bit_ADDER_1.FULL_ADDER_1.COUT.t7 a_n18422_n8419.t5 VSS.t1865 sky130_fd_pr__nfet_01v8 ad=0.10725 pd=0.98 as=0.10725 ps=0.98 w=0.65 l=0.15
X75 VDD.t2317 B1.t0 a_n12314_n18115.t2 VDD.t2316 sky130_fd_pr__pfet_01v8 ad=0.45375 pd=3.08 as=0.45375 ps=3.08 w=2.75 l=0.15
X76 mux8_1.NAND4F_1.Y.t8 mux8_1.NAND4F_4.B.t4 VDD.t1260 VDD.t1259 sky130_fd_pr__pfet_01v8 ad=0.26565 pd=1.94 as=0.26565 ps=1.94 w=1.61 l=0.15
X77 mux8_1.NAND4F_9.Y.t8 mux8_1.NAND4F_7.Y.t9 VDD.t1324 VDD.t1323 sky130_fd_pr__pfet_01v8 ad=0.26565 pd=1.94 as=0.4991 ps=3.84 w=1.61 l=0.15
X78 a_n18422_n5154.t4 MULT_0.4bit_ADDER_0.FULL_ADDER_1.COUT.t7 VSS.t1276 VSS.t1275 sky130_fd_pr__nfet_01v8 ad=0.10725 pd=0.98 as=0.10725 ps=0.98 w=0.65 l=0.15
X79 VDD.t3098 SEL0.t3 mux8_8.NAND4F_6.Y.t8 VDD.t3097 sky130_fd_pr__pfet_01v8 ad=0.26565 pd=1.94 as=0.26565 ps=1.94 w=1.61 l=0.15
X80 8bit_ADDER_0.FULL_ADDER_XORED_3.XOR2_1.A.t5 a_n14931_1406.t2 a_n14751_1406.t5 VSS.t1548 sky130_fd_pr__nfet_01v8 ad=0.10725 pd=0.98 as=0.10725 ps=0.98 w=0.65 l=0.15
X81 VDD.t3096 SEL0.t4 mux8_1.NAND4F_7.Y.t8 VDD.t3095 sky130_fd_pr__pfet_01v8 ad=0.26565 pd=1.94 as=0.26565 ps=1.94 w=1.61 l=0.15
X82 VDD.t3094 SEL0.t5 mux8_4.NAND4F_4.B.t3 VDD.t3026 sky130_fd_pr__pfet_01v8 ad=0.3317 pd=2.76 as=0.17655 ps=1.4 w=1.07 l=0.15
X83 a_n14077_3810.t5 B4.t3 VDD.t3583 VDD.t3582 sky130_fd_pr__pfet_01v8 ad=0.45375 pd=3.08 as=0.45375 ps=3.08 w=2.75 l=0.15
X84 V_FLAG_0.NAND2_0.Y.t0 V_FLAG_0.XOR2_2.Y.t12 VDD.t2272 VDD.t2271 sky130_fd_pr__pfet_01v8 ad=0.17655 pd=1.4 as=0.17655 ps=1.4 w=1.07 l=0.15
X85 VDD.t3384 MULT_0.4bit_ADDER_2.FULL_ADDER_3.XOR2_1.A.t12 MULT_0.4bit_ADDER_2.FULL_ADDER_3.NAND2_2.A.t2 VDD.t3383 sky130_fd_pr__pfet_01v8 ad=0.17655 pd=1.4 as=0.17655 ps=1.4 w=1.07 l=0.15
X86 VSS.t1147 a_n3350_1380.t2 a_n3320_1406.t2 VSS.t1146 sky130_fd_pr__nfet_01v8 ad=0.10725 pd=0.98 as=0.10725 ps=0.98 w=0.65 l=0.15
X87 8bit_ADDER_0.FULL_ADDER_XORED_7.XOR2_1.A.t5 a_n1768_1406.t2 a_n1588_1406.t2 VSS.t1274 sky130_fd_pr__nfet_01v8 ad=0.10725 pd=0.98 as=0.10725 ps=0.98 w=0.65 l=0.15
X88 OR8_0.S5.t3 OR8_0.NOT8_0.A5.t7 VDD.t2277 VDD.t311 sky130_fd_pr__pfet_01v8 ad=0.17655 pd=1.4 as=0.3317 ps=2.76 w=1.07 l=0.15
X89 VDD.t584 B0.t0 MULT_0.NAND2_2.Y.t2 VDD.t583 sky130_fd_pr__pfet_01v8 ad=0.17655 pd=1.4 as=0.17655 ps=1.4 w=1.07 l=0.15
X90 a_n11274_n29052.t4 a_n12345_n28506.t2 VSS.t934 VSS.t933 sky130_fd_pr__nfet_01v8 ad=0.10725 pd=0.98 as=0.10075 ps=0.96 w=0.65 l=0.15
X91 a_9432_n20950.t0 mux8_5.NAND4F_0.C.t5 a_9336_n20950.t0 VSS.t1664 sky130_fd_pr__nfet_01v8 ad=0.66 pd=4.33 as=0.66 ps=4.33 w=4 l=0.15
X92 MULT_0.4bit_ADDER_1.FULL_ADDER_0.NAND2_2.A.t2 MULT_0.4bit_ADDER_1.FULL_ADDER_0.XOR2_1.A.t12 VDD.t2251 VDD.t2250 sky130_fd_pr__pfet_01v8 ad=0.17655 pd=1.4 as=0.3317 ps=2.76 w=1.07 l=0.15
X93 VDD.t151 MULT_0.4bit_ADDER_2.B2.t12 a_n17446_n11683.t1 VDD.t150 sky130_fd_pr__pfet_01v8 ad=0.42625 pd=3.06 as=0.7975 ps=6.08 w=2.75 l=0.15
X94 mux8_3.NAND4F_8.Y.t4 mux8_3.NAND4F_4.Y.t9 VDD.t2643 VDD.t2642 sky130_fd_pr__pfet_01v8 ad=0.26565 pd=1.94 as=0.26565 ps=1.94 w=1.61 l=0.15
X95 VSS.t645 left_shifter_0.buffer_2.inv_1.A.t4 left_shifter_0.S7.t0 VSS.t285 sky130_fd_pr__nfet_01v8 ad=0.29 pd=2.58 as=0.29 ps=2.58 w=1 l=0.15
X96 a_11865_n7203.t4 mux8_2.NAND4F_8.Y.t9 VDD.t33 VDD.t32 sky130_fd_pr__pfet_01v8 ad=0.2112 pd=1.61 as=0.3968 ps=3.18 w=1.28 l=0.15
X97 V_FLAG_0.XOR2_2.Y.t3 a_3463_4888.t2 a_3493_5534.t11 VDD.t487 sky130_fd_pr__pfet_01v8 ad=0.45375 pd=3.08 as=0.45375 ps=3.08 w=2.75 l=0.15
X98 mux8_6.NAND4F_7.Y.t4 NOT8_0.S7.t4 a_10459_n35461.t0 VSS.t199 sky130_fd_pr__nfet_01v8 ad=1.24 pd=8.62 as=0.66 ps=4.33 w=4 l=0.15
X99 VDD.t1983 VSS.t2033 a_n9125_n4534.t9 VDD.t1982 sky130_fd_pr__pfet_01v8 ad=0.42625 pd=3.06 as=0.45375 ps=3.08 w=2.75 l=0.15
X100 mux8_5.NAND4F_9.Y.t6 mux8_5.NAND4F_6.Y.t9 VDD.t4246 VDD.t4245 sky130_fd_pr__pfet_01v8 ad=0.26565 pd=1.94 as=0.26565 ps=1.94 w=1.61 l=0.15
X101 a_10459_n30006.t1 SEL0.t6 a_10363_n30006.t1 VSS.t1988 sky130_fd_pr__nfet_01v8 ad=0.66 pd=4.33 as=0.66 ps=4.33 w=4 l=0.15
X102 a_n14077_3190.t2 SEL3.t1 VSS.t372 VSS.t371 sky130_fd_pr__nfet_01v8 ad=0.10725 pd=0.98 as=0.10075 ps=0.96 w=0.65 l=0.15
X103 a_n12605_n12716.t0 MULT_0.4bit_ADDER_2.FULL_ADDER_2.XOR2_1.A.t12 VSS.t1041 VSS.t70 sky130_fd_pr__nfet_01v8 ad=0.33 pd=2.33 as=0.62 ps=4.62 w=2 l=0.15
X104 MULT_0.4bit_ADDER_2.FULL_ADDER_2.NAND2_2.B.t0 MULT_0.inv_9.Y.t5 a_n13714_n12716.t0 VSS.t70 sky130_fd_pr__nfet_01v8 ad=0.62 pd=4.62 as=0.33 ps=2.33 w=2 l=0.15
X105 C.t0 mux8_0.inv_0.A.t7 VSS.t1515 VSS.t1514 sky130_fd_pr__nfet_01v8 ad=0.29 pd=2.58 as=0.29 ps=2.58 w=1 l=0.15
X106 VDD.t222 MULT_0.4bit_ADDER_0.FULL_ADDER_3.NAND2_2.B.t7 MULT_0.4bit_ADDER_0.FULL_ADDER_3.COUT.t3 VDD.t221 sky130_fd_pr__pfet_01v8 ad=0.3317 pd=2.76 as=0.17655 ps=1.4 w=1.07 l=0.15
X107 MULT_0.NAND2_14.Y.t2 A2.t1 VDD.t260 VDD.t259 sky130_fd_pr__pfet_01v8 ad=0.17655 pd=1.4 as=0.17655 ps=1.4 w=1.07 l=0.15
X108 VDD.t2319 B1.t1 a_n12345_n17857.t1 VDD.t2318 sky130_fd_pr__pfet_01v8 ad=0.42625 pd=3.06 as=0.7975 ps=6.08 w=2.75 l=0.15
X109 a_n4205_3190.t2 SEL3.t2 VSS.t374 VSS.t373 sky130_fd_pr__nfet_01v8 ad=0.10725 pd=0.98 as=0.10725 ps=0.98 w=0.65 l=0.15
X110 MULT_0.4bit_ADDER_0.FULL_ADDER_3.NAND2_2.B.t0 MULT_0.4bit_ADDER_0.B0.t4 VDD.t284 VDD.t283 sky130_fd_pr__pfet_01v8 ad=0.17655 pd=1.4 as=0.3317 ps=2.76 w=1.07 l=0.15
X111 mux8_6.NAND4F_5.Y.t8 mux8_6.NAND4F_4.B.t4 VDD.t5 VDD.t4 sky130_fd_pr__pfet_01v8 ad=0.26565 pd=1.94 as=0.26565 ps=1.94 w=1.61 l=0.15
X112 a_n11274_n18115.t5 a_n12345_n17857.t2 XOR8_0.S1.t0 VSS.t128 sky130_fd_pr__nfet_01v8 ad=0.10725 pd=0.98 as=0.10725 ps=0.98 w=0.65 l=0.15
X113 a_9336_n12822.t0 SEL2.t2 VSS.t1700 VSS.t1382 sky130_fd_pr__nfet_01v8 ad=0.66 pd=4.33 as=1.24 ps=8.62 w=4 l=0.15
X114 a_n914_3810.t2 SEL3.t3 VDD.t765 VDD.t764 sky130_fd_pr__pfet_01v8 ad=0.45375 pd=3.08 as=0.45375 ps=3.08 w=2.75 l=0.15
X115 VSS.t1218 MULT_0.4bit_ADDER_0.FULL_ADDER_3.COUT.t7 a_n11840_n5154.t2 VSS.t1217 sky130_fd_pr__nfet_01v8 ad=0.10725 pd=0.98 as=0.10725 ps=0.98 w=0.65 l=0.15
X116 VDD.t4069 A3.t1 MULT_0.NAND2_11.Y.t6 VDD.t4068 sky130_fd_pr__pfet_01v8 ad=0.3317 pd=2.76 as=0.17655 ps=1.4 w=1.07 l=0.15
X117 mux8_8.NAND4F_5.Y.t1 SEL2.t3 VDD.t3705 VDD.t3704 sky130_fd_pr__pfet_01v8 ad=0.26565 pd=1.94 as=0.4991 ps=3.84 w=1.61 l=0.15
X118 VSS.t213 MULT_0.4bit_ADDER_0.FULL_ADDER_1.XOR2_1.A.t12 a_n15887_n5154.t0 VSS.t212 sky130_fd_pr__nfet_01v8 ad=0.10075 pd=0.96 as=0.1885 ps=1.88 w=0.65 l=0.15
X119 a_n22426_n9284.t0 B2.t0 VSS.t1285 VSS.t1284 sky130_fd_pr__nfet_01v8 ad=0.33 pd=2.33 as=0.62 ps=4.62 w=2 l=0.15
X120 mux8_8.NAND4F_7.Y.t7 NOT8_0.S6.t4 VDD.t2281 VDD.t2280 sky130_fd_pr__pfet_01v8 ad=0.26565 pd=1.94 as=0.26565 ps=1.94 w=1.61 l=0.15
X121 VDD.t3527 B6.t2 right_shifter_0.buffer_2.inv_1.A.t3 VDD.t361 sky130_fd_pr__pfet_01v8 ad=0.17655 pd=1.4 as=0.17655 ps=1.4 w=1.07 l=0.15
X122 mux8_7.NAND4F_9.Y.t4 mux8_7.NAND4F_5.Y.t9 a_11386_n26406.t1 VSS.t243 sky130_fd_pr__nfet_01v8 ad=1.24 pd=8.62 as=0.66 ps=4.33 w=4 l=0.15
X123 VDD.t3495 MULT_0.4bit_ADDER_1.B1.t12 a_n14155_n8419.t1 VDD.t3494 sky130_fd_pr__pfet_01v8 ad=0.42625 pd=3.06 as=0.7975 ps=6.08 w=2.75 l=0.15
X124 a_n12314_n26419.t5 B4.t4 VDD.t3585 VDD.t3584 sky130_fd_pr__pfet_01v8 ad=0.45375 pd=3.08 as=0.42625 ps=3.06 w=2.75 l=0.15
X125 VDD.t802 8bit_ADDER_0.FULL_ADDER_XORED_7.COUT.t7 8bit_ADDER_0.FULL_ADDER_XORED_6.NAND2_2.A.t6 VDD.t801 sky130_fd_pr__pfet_01v8 ad=0.17655 pd=1.4 as=0.17655 ps=1.4 w=1.07 l=0.15
X126 mux8_2.NAND4F_1.Y.t4 XOR8_0.S1.t13 a_9528_n8194.t0 VSS.t31 sky130_fd_pr__nfet_01v8 ad=1.24 pd=8.62 as=0.66 ps=4.33 w=4 l=0.15
X127 AND8_0.S0.t3 AND8_0.NOT8_0.A0.t7 VDD.t1353 VDD.t1352 sky130_fd_pr__pfet_01v8 ad=0.3317 pd=2.76 as=0.17655 ps=1.4 w=1.07 l=0.15
X128 8bit_ADDER_0.S0.t2 a_n209_1406.t2 a_n29_1406.t2 VSS.t1451 sky130_fd_pr__nfet_01v8 ad=0.10725 pd=0.98 as=0.10725 ps=0.98 w=0.65 l=0.15
X129 VDD.t3528 B6.t3 left_shifter_0.buffer_2.inv_1.A.t3 VDD.t467 sky130_fd_pr__pfet_01v8 ad=0.17655 pd=1.4 as=0.17655 ps=1.4 w=1.07 l=0.15
X130 left_shifter_0.S1.t3 left_shifter_0.buffer_6.inv_1.A.t4 VDD.t1238 VDD.t135 sky130_fd_pr__pfet_01v8 ad=0.3317 pd=2.76 as=0.17655 ps=1.4 w=1.07 l=0.15
X131 VDD.t1245 mux8_0.NAND4F_0.Y.t9 mux8_0.NAND4F_8.Y.t2 VDD.t1244 sky130_fd_pr__pfet_01v8 ad=0.26565 pd=1.94 as=0.26565 ps=1.94 w=1.61 l=0.15
X132 8bit_ADDER_0.FULL_ADDER_XORED_6.NAND2_2.A.t2 8bit_ADDER_0.FULL_ADDER_XORED_6.XOR2_1.A.t12 VDD.t749 VDD.t748 sky130_fd_pr__pfet_01v8 ad=0.17655 pd=1.4 as=0.3317 ps=2.76 w=1.07 l=0.15
X133 MULT_0.4bit_ADDER_0.A1.t3 MULT_0.NAND2_5.Y.t7 VDD.t3148 VDD.t3147 sky130_fd_pr__pfet_01v8 ad=0.17655 pd=1.4 as=0.17655 ps=1.4 w=1.07 l=0.15
X134 mux8_5.NAND4F_0.Y.t3 mux8_5.A1.t12 VDD.t1365 VDD.t1364 sky130_fd_pr__pfet_01v8 ad=0.26565 pd=1.94 as=0.26565 ps=1.94 w=1.61 l=0.15
X135 a_n14490_373.t0 8bit_ADDER_0.FULL_ADDER_XORED_3.XOR2_2.Y.t12 VSS.t708 VSS.t707 sky130_fd_pr__nfet_01v8 ad=0.33 pd=2.33 as=0.62 ps=4.62 w=2 l=0.15
X136 VDD.t3412 MULT_0.4bit_ADDER_2.FULL_ADDER_2.NAND2_2.A.t7 MULT_0.4bit_ADDER_2.FULL_ADDER_2.COUT.t6 VDD.t3411 sky130_fd_pr__pfet_01v8 ad=0.17655 pd=1.4 as=0.17655 ps=1.4 w=1.07 l=0.15
X137 a_n18042_1406.t2 a_n18072_1380.t2 VSS.t1065 VSS.t1064 sky130_fd_pr__nfet_01v8 ad=0.10725 pd=0.98 as=0.10075 ps=0.96 w=0.65 l=0.15
X138 VDD.t1249 left_shifter_0.S1.t4 mux8_2.NAND4F_5.Y.t0 VDD.t1248 sky130_fd_pr__pfet_01v8 ad=0.4991 pd=3.84 as=0.26565 ps=1.94 w=1.61 l=0.15
X139 VDD.t4340 SEL1.t2 mux8_0.NAND4F_2.Y.t4 VDD.t4339 sky130_fd_pr__pfet_01v8 ad=0.26565 pd=1.94 as=0.26565 ps=1.94 w=1.61 l=0.15
X140 a_n9325_1406.t2 8bit_ADDER_0.FULL_ADDER_XORED_5.COUT.t7 VSS.t859 VSS.t858 sky130_fd_pr__nfet_01v8 ad=0.10725 pd=0.98 as=0.10725 ps=0.98 w=0.65 l=0.15
X141 a_16431_n18523.t5 Y1.t4 a_16143_n18523.t2 VDD.t3167 sky130_fd_pr__pfet_01v8 ad=0.7062 pd=4.61 as=0.7062 ps=4.61 w=4.28 l=0.15
X142 mux8_8.inv_0.A.t4 mux8_8.NAND4F_9.Y.t9 a_11865_n29943.t4 VDD.t1110 sky130_fd_pr__pfet_01v8 ad=0.3968 pd=3.18 as=0.2112 ps=1.61 w=1.28 l=0.15
X143 a_n17677_n21025.t4 B4.t5 VDD.t3587 VDD.t3586 sky130_fd_pr__pfet_01v8 ad=0.2112 pd=1.61 as=0.2112 ps=1.61 w=1.28 l=0.15
X144 VDD.t3468 8bit_ADDER_0.FULL_ADDER_XORED_0.XOR2_1.A.t12 a_n23245_1406.t1 VDD.t3467 sky130_fd_pr__pfet_01v8 ad=0.42625 pd=3.06 as=0.7975 ps=6.08 w=2.75 l=0.15
X145 mux8_2.NAND4F_5.Y.t1 left_shifter_0.S1.t5 a_7644_n8194.t0 VSS.t396 sky130_fd_pr__nfet_01v8 ad=1.24 pd=8.62 as=0.66 ps=4.33 w=4 l=0.15
X146 VSS.t178 A5.t1 OR8_0.NOT8_0.A5.t6 VSS.t177 sky130_fd_pr__nfet_01v8 ad=0.31 pd=2.62 as=0.165 ps=1.33 w=1 l=0.15
X147 a_n18998_n11063.t11 a_n19028_n11709.t2 mux8_8.A1.t9 VDD.t2728 sky130_fd_pr__pfet_01v8 ad=0.45375 pd=3.08 as=0.45375 ps=3.08 w=2.75 l=0.15
X148 VDD.t2713 MULT_0.4bit_ADDER_1.B3.t7 MULT_0.4bit_ADDER_1.FULL_ADDER_0.NAND2_2.B.t2 VDD.t2712 sky130_fd_pr__pfet_01v8 ad=0.17655 pd=1.4 as=0.17655 ps=1.4 w=1.07 l=0.15
X149 a_11865_n25415.t4 mux8_7.NAND4F_9.Y.t9 mux8_7.inv_0.A.t5 VDD.t3281 sky130_fd_pr__pfet_01v8 ad=0.2112 pd=1.61 as=0.2112 ps=1.61 w=1.28 l=0.15
X150 a_n15907_1406.t2 8bit_ADDER_0.FULL_ADDER_XORED_2.XOR2_1.A.t12 mux8_7.A0.t10 VSS.t1770 sky130_fd_pr__nfet_01v8 ad=0.10725 pd=0.98 as=0.10725 ps=0.98 w=0.65 l=0.15
X151 a_11290_n25478.t0 mux8_7.NAND4F_3.Y.t9 a_11194_n25478.t1 VSS.t1272 sky130_fd_pr__nfet_01v8 ad=0.66 pd=4.33 as=0.66 ps=4.33 w=4 l=0.15
X152 a_n20113_3164.t1 B6.t4 VDD.t3530 VDD.t3529 sky130_fd_pr__pfet_01v8 ad=0.7975 pd=6.08 as=0.42625 ps=3.06 w=2.75 l=0.15
X153 VDD.t3187 MULT_0.4bit_ADDER_1.A0.t4 MULT_0.4bit_ADDER_1.FULL_ADDER_3.NAND2_2.B.t6 VDD.t3186 sky130_fd_pr__pfet_01v8 ad=0.17655 pd=1.4 as=0.17655 ps=1.4 w=1.07 l=0.15
X154 VDD.t2633 MULT_0.NAND2_14.Y.t7 MULT_0.inv_14.Y.t3 VDD.t2632 sky130_fd_pr__pfet_01v8 ad=0.17655 pd=1.4 as=0.3317 ps=2.76 w=1.07 l=0.15
X155 VDD.t2418 MULT_0.4bit_ADDER_0.FULL_ADDER_3.COUT.t8 a_n12416_n4534.t3 VDD.t2417 sky130_fd_pr__pfet_01v8 ad=0.42625 pd=3.06 as=0.45375 ps=3.08 w=2.75 l=0.15
X156 VDD.t3352 mux8_3.NAND4F_7.Y.t9 mux8_3.NAND4F_9.Y.t6 VDD.t3351 sky130_fd_pr__pfet_01v8 ad=0.26565 pd=1.94 as=0.26565 ps=1.94 w=1.61 l=0.15
X157 VSS.t1519 mux8_6.A0.t12 a_5773_4912.t5 VSS.t1518 sky130_fd_pr__nfet_01v8 ad=0.10725 pd=0.98 as=0.10725 ps=0.98 w=0.65 l=0.15
X158 a_n6035_1406.t5 8bit_ADDER_0.FULL_ADDER_XORED_5.XOR2_1.A.t12 8bit_ADDER_0.S2.t6 VSS.t1237 sky130_fd_pr__nfet_01v8 ad=0.10725 pd=0.98 as=0.10725 ps=0.98 w=0.65 l=0.15
X159 MULT_0.4bit_ADDER_1.FULL_ADDER_1.XOR2_1.A.t2 a_n17296_n8445.t2 a_n17266_n7799.t2 VDD.t3288 sky130_fd_pr__pfet_01v8 ad=0.45375 pd=3.08 as=0.45375 ps=3.08 w=2.75 l=0.15
X160 a_n6950_3164.t1 B2.t1 VDD.t2574 VDD.t2573 sky130_fd_pr__pfet_01v8 ad=0.7975 pd=6.08 as=0.42625 ps=3.06 w=2.75 l=0.15
X161 VDD.t713 MULT_0.4bit_ADDER_0.FULL_ADDER_2.NAND2_2.B.t7 MULT_0.4bit_ADDER_0.FULL_ADDER_2.COUT.t6 VDD.t712 sky130_fd_pr__pfet_01v8 ad=0.3317 pd=2.76 as=0.17655 ps=1.4 w=1.07 l=0.15
X162 mux8_8.NAND4F_9.Y.t4 mux8_8.NAND4F_6.Y.t9 VDD.t354 VDD.t353 sky130_fd_pr__pfet_01v8 ad=0.26565 pd=1.94 as=0.26565 ps=1.94 w=1.61 l=0.15
X163 mux8_6.NAND4F_8.Y.t4 mux8_6.NAND4F_4.Y.t9 VDD.t911 VDD.t910 sky130_fd_pr__pfet_01v8 ad=0.26565 pd=1.94 as=0.26565 ps=1.94 w=1.61 l=0.15
X164 a_3463_4888.t0 V_FLAG_0.XOR2_2.B.t12 VSS.t489 VSS.t488 sky130_fd_pr__nfet_01v8 ad=0.1885 pd=1.88 as=0.10075 ps=0.96 w=0.65 l=0.15
X165 mux8_0.NAND4F_2.D.t0 SEL2.t4 VSS.t1702 VSS.t1701 sky130_fd_pr__nfet_01v8 ad=0.29 pd=2.58 as=0.29 ps=2.58 w=1 l=0.15
X166 mux8_2.NAND4F_8.Y.t1 mux8_2.NAND4F_4.Y.t9 VDD.t915 VDD.t914 sky130_fd_pr__pfet_01v8 ad=0.26565 pd=1.94 as=0.26565 ps=1.94 w=1.61 l=0.15
X167 a_n17677_n18225.t9 B2.t2 VDD.t2576 VDD.t2575 sky130_fd_pr__pfet_01v8 ad=0.2112 pd=1.61 as=0.2112 ps=1.61 w=1.28 l=0.15
X168 OR8_0.NOT8_0.A0.t4 A0.t0 a_n17677_n15425.t4 VDD.t1653 sky130_fd_pr__pfet_01v8 ad=0.3968 pd=3.18 as=0.2112 ps=1.61 w=1.28 l=0.15
X169 MULT_0.4bit_ADDER_1.FULL_ADDER_1.XOR2_1.A.t3 a_n17446_n8419.t2 a_n17266_n8419.t5 VSS.t356 sky130_fd_pr__nfet_01v8 ad=0.10725 pd=0.98 as=0.10725 ps=0.98 w=0.65 l=0.15
X170 VSS.t1834 A3.t2 OR8_0.NOT8_0.A3.t6 VSS.t810 sky130_fd_pr__nfet_01v8 ad=0.31 pd=2.62 as=0.165 ps=1.33 w=1 l=0.15
X171 VDD.t1061 right_shifter_0.S0.t4 mux8_1.NAND4F_6.Y.t2 VDD.t1060 sky130_fd_pr__pfet_01v8 ad=0.4991 pd=3.84 as=0.26565 ps=1.94 w=1.61 l=0.15
X172 mux8_6.NAND4F_4.B.t0 SEL0.t7 VSS.t1987 VSS.t1986 sky130_fd_pr__nfet_01v8 ad=0.29 pd=2.58 as=0.29 ps=2.58 w=1 l=0.15
X173 ZFLAG_0.nor4_0.Y.t4 Y3.t4 VSS.t1220 VSS.t1219 sky130_fd_pr__nfet_01v8 ad=0.165 pd=1.33 as=0.31 ps=2.62 w=1 l=0.15
X174 VDD.t888 B5.t0 NOT8_0.S5.t0 VDD.t887 sky130_fd_pr__pfet_01v8 ad=0.17655 pd=1.4 as=0.17655 ps=1.4 w=1.07 l=0.15
X175 a_7644_n16422.t0 mux8_4.NAND4F_4.B.t4 a_7548_n16422.t0 VSS.t1544 sky130_fd_pr__nfet_01v8 ad=0.66 pd=4.33 as=0.66 ps=4.33 w=4 l=0.15
X176 a_n10786_3190.t5 B3.t0 8bit_ADDER_0.FULL_ADDER_XORED_4.XOR2_2.Y.t9 VSS.t1100 sky130_fd_pr__nfet_01v8 ad=0.10725 pd=0.98 as=0.10725 ps=0.98 w=0.65 l=0.15
X177 VDD.t180 mux8_7.NAND4F_0.C.t4 mux8_7.NAND4F_1.Y.t3 VDD.t179 sky130_fd_pr__pfet_01v8 ad=0.26565 pd=1.94 as=0.26565 ps=1.94 w=1.61 l=0.15
X178 a_n16690_n5154.t3 MULT_0.4bit_ADDER_0.B2.t4 MULT_0.4bit_ADDER_0.FULL_ADDER_1.XOR2_1.A.t9 VSS.t1445 sky130_fd_pr__nfet_01v8 ad=0.10725 pd=0.98 as=0.10725 ps=0.98 w=0.65 l=0.15
X179 8bit_ADDER_0.FULL_ADDER_XORED_2.XOR2_2.Y.t2 a_n16822_3164.t2 a_n16792_3190.t2 VSS.t1434 sky130_fd_pr__nfet_01v8 ad=0.10725 pd=0.98 as=0.10725 ps=0.98 w=0.65 l=0.15
X180 a_n18998_n11063.t6 MULT_0.4bit_ADDER_2.FULL_ADDER_0.XOR2_1.A.t13 VDD.t3656 VDD.t3655 sky130_fd_pr__pfet_01v8 ad=0.45375 pd=3.08 as=0.42625 ps=3.06 w=2.75 l=0.15
X181 VSS.t137 8bit_ADDER_0.FULL_ADDER_XORED_3.XOR2_1.A.t12 a_n13372_1406.t0 VSS.t136 sky130_fd_pr__nfet_01v8 ad=0.10075 pd=0.96 as=0.1885 ps=1.88 w=0.65 l=0.15
X182 a_7548_n20950.t1 SEL1.t3 a_7452_n20950.t1 VSS.t1950 sky130_fd_pr__nfet_01v8 ad=0.66 pd=4.33 as=0.66 ps=4.33 w=4 l=0.15
X183 MULT_0.4bit_ADDER_2.FULL_ADDER_0.NAND2_2.B.t2 MULT_0.4bit_ADDER_2.B3.t8 VDD.t4053 VDD.t4052 sky130_fd_pr__pfet_01v8 ad=0.17655 pd=1.4 as=0.3317 ps=2.76 w=1.07 l=0.15
X184 mux8_0.NAND4F_4.Y.t3 mux8_0.NAND4F_2.D.t4 VDD.t2888 VDD.t2887 sky130_fd_pr__pfet_01v8 ad=0.26565 pd=1.94 as=0.4991 ps=3.84 w=1.61 l=0.15
X185 a_n14751_2026.t8 8bit_ADDER_0.FULL_ADDER_XORED_3.XOR2_2.Y.t13 VDD.t1438 VDD.t1437 sky130_fd_pr__pfet_01v8 ad=0.45375 pd=3.08 as=0.42625 ps=3.06 w=2.75 l=0.15
X186 8bit_ADDER_0.FULL_ADDER_XORED_6.NAND2_2.A.t5 8bit_ADDER_0.FULL_ADDER_XORED_7.COUT.t8 VDD.t804 VDD.t803 sky130_fd_pr__pfet_01v8 ad=0.17655 pd=1.4 as=0.17655 ps=1.4 w=1.07 l=0.15
X187 MULT_0.4bit_ADDER_0.FULL_ADDER_2.NAND2_2.B.t3 MULT_0.4bit_ADDER_0.A1.t4 VDD.t2303 VDD.t2302 sky130_fd_pr__pfet_01v8 ad=0.17655 pd=1.4 as=0.17655 ps=1.4 w=1.07 l=0.15
X188 VDD.t1349 mux8_2.NAND4F_7.Y.t9 mux8_2.NAND4F_9.Y.t1 VDD.t1348 sky130_fd_pr__pfet_01v8 ad=0.26565 pd=1.94 as=0.26565 ps=1.94 w=1.61 l=0.15
X189 a_n11274_n23651.t3 a_n12345_n23105.t2 VSS.t1360 VSS.t1359 sky130_fd_pr__nfet_01v8 ad=0.10725 pd=0.98 as=0.10075 ps=0.96 w=0.65 l=0.15
X190 VSS.t1791 a_n7676_3190.t2 a_n6920_3190.t2 VSS.t1790 sky130_fd_pr__nfet_01v8 ad=0.10725 pd=0.98 as=0.10725 ps=0.98 w=0.65 l=0.15
X191 VDD.t2749 8bit_ADDER_0.FULL_ADDER_XORED_3.COUT.t7 a_n16483_2026.t5 VDD.t2748 sky130_fd_pr__pfet_01v8 ad=0.42625 pd=3.06 as=0.45375 ps=3.08 w=2.75 l=0.15
X192 a_n22489_1406.t4 8bit_ADDER_0.FULL_ADDER_XORED_0.XOR2_1.A.t13 mux8_6.A0.t1 VSS.t1600 sky130_fd_pr__nfet_01v8 ad=0.10725 pd=0.98 as=0.10725 ps=0.98 w=0.65 l=0.15
X193 VSS.t1053 MULT_0.4bit_ADDER_2.FULL_ADDER_3.COUT.t7 a_n11840_n11683.t5 VSS.t1052 sky130_fd_pr__nfet_01v8 ad=0.10075 pd=0.96 as=0.10725 ps=0.98 w=0.65 l=0.15
X194 XOR8_0.S6.t3 a_n12345_n31403.t2 a_n11274_n31661.t2 VSS.t940 sky130_fd_pr__nfet_01v8 ad=0.10725 pd=0.98 as=0.10725 ps=0.98 w=0.65 l=0.15
X195 a_n20659_3810.t2 SEL3.t4 VDD.t767 VDD.t766 sky130_fd_pr__pfet_01v8 ad=0.45375 pd=3.08 as=0.45375 ps=3.08 w=2.75 l=0.15
X196 VDD.t2837 A6.t0 8bit_ADDER_0.FULL_ADDER_XORED_1.NAND2_2.B.t3 VDD.t2836 sky130_fd_pr__pfet_01v8 ad=0.3317 pd=2.76 as=0.17655 ps=1.4 w=1.07 l=0.15
X197 VDD.t751 8bit_ADDER_0.FULL_ADDER_XORED_6.XOR2_1.A.t13 8bit_ADDER_0.FULL_ADDER_XORED_6.NAND2_2.A.t1 VDD.t750 sky130_fd_pr__pfet_01v8 ad=0.17655 pd=1.4 as=0.17655 ps=1.4 w=1.07 l=0.15
X198 a_n18998_n7799.t8 a_n19028_n8445.t2 MULT_0.4bit_ADDER_2.B2.t9 VDD.t1344 sky130_fd_pr__pfet_01v8 ad=0.45375 pd=3.08 as=0.45375 ps=3.08 w=2.75 l=0.15
X199 mux8_6.NAND4F_9.Y.t2 mux8_6.NAND4F_5.Y.t9 a_11386_n35462.t1 VSS.t234 sky130_fd_pr__nfet_01v8 ad=1.24 pd=8.62 as=0.66 ps=4.33 w=4 l=0.15
X200 VDD.t2140 B3.t1 NOT8_0.S3.t2 VDD.t887 sky130_fd_pr__pfet_01v8 ad=0.17655 pd=1.4 as=0.17655 ps=1.4 w=1.07 l=0.15
X201 a_n8200_1380.t1 A2.t2 VDD.t262 VDD.t261 sky130_fd_pr__pfet_01v8 ad=0.7975 pd=6.08 as=0.42625 ps=3.06 w=2.75 l=0.15
X202 VDD.t831 MULT_0.4bit_ADDER_2.FULL_ADDER_2.COUT.t7 a_n15707_n11063.t5 VDD.t830 sky130_fd_pr__pfet_01v8 ad=0.42625 pd=3.06 as=0.45375 ps=3.08 w=2.75 l=0.15
X203 a_n9125_n5154.t5 a_n9305_n5154.t2 MULT_0.S1.t6 VSS.t170 sky130_fd_pr__nfet_01v8 ad=0.10725 pd=0.98 as=0.10725 ps=0.98 w=0.65 l=0.15
X204 VDD.t635 MULT_0.4bit_ADDER_0.A3.t4 a_n20557_n4534.t2 VDD.t634 sky130_fd_pr__pfet_01v8 ad=0.45375 pd=3.08 as=0.45375 ps=3.08 w=2.75 l=0.15
X205 a_n18998_n8419.t2 a_n19178_n8419.t2 MULT_0.4bit_ADDER_2.B2.t0 VSS.t124 sky130_fd_pr__nfet_01v8 ad=0.10725 pd=0.98 as=0.10725 ps=0.98 w=0.65 l=0.15
X206 VDD.t4244 MULT_0.4bit_ADDER_1.A3.t4 MULT_0.4bit_ADDER_1.FULL_ADDER_0.NAND2_2.B.t6 VDD.t4243 sky130_fd_pr__pfet_01v8 ad=0.3317 pd=2.76 as=0.17655 ps=1.4 w=1.07 l=0.15